Some file with some message. Some change.
New line.
//And a comment.
File with text demo.
Sashi is cool.
You better not delete this change.
----------------------------------
Branch main + branch develop.
//New comment
