Some file with some text. Some change.
New line.
//And a comment.
File with text demo.
